LTspice 24.0.12 for Windows
Circuit: * C:\Users\Jacob\AppData\Roaming\SPB_Data\FSAE_ELECTRONICS\BSPD\SIMS\BSPD\BSPD_Sim.asc
Start Time: Fri Apr 18 22:03:26 2025
solver = Normal
Maximum thread count: 12
tnom = 27
temp = 27
method = modified trap
Direct Newton iteration for .op point succeeded.
Total elapsed time: 0.163 seconds.

