LTspice 24.0.12 for Windows
Circuit: * C:\Users\parth\OneDrive\Desktop\BSPD\BSPD_Sim.asc
Start Time: Wed Feb 12 17:59:49 2025
solver = Normal
Maximum thread count: 12
tnom = 27
temp = 27
method = modified trap
Fatal Error: v9: requires a minimum of 5 parameters.  Only 0 specified.

