LTspice 24.0.12 for Windows
Circuit: * C:\Users\parth\FSAE_ELECTRONICS\BSPD\SIMS\BSPD\BSPD_Sim.asc
Start Time: Tue Apr 22 18:28:45 2025
solver = Normal
Maximum thread count: 12
tnom = 27
temp = 27
method = modified trap
Direct Newton iteration for .op point succeeded.
Total elapsed time: 0.279 seconds.

