LTspice 24.0.12 for Windows
Circuit: * C:\Users\parth\OneDrive\Desktop\BSPD_Sim.asc
Start Time: Tue Apr 22 22:20:28 2025
solver = Normal
Maximum thread count: 12
tnom = 27
temp = 27
method = modified trap
Direct Newton iteration for .op point succeeded.
Total elapsed time: 0.318 seconds.

